McPAT (version 1.0 of Aug, 2013) is computing the target processor...
 
